[General]
cmdenv-interactive = true
sim-time-limit = 90s

#*.client.addPacketDropper = true
#*.client.packetDropper.packetNumber = 13699
#*.client.packetDropper.packetNumber = 3424

seed-set=${0,1,2,3,4}
**.numIMU=1
**.priority=5
**.pcapRecorder[*].alwaysFlush = true
*.client.numPcapRecorders = 1
*.client.pcapRecorder[*].pcapLinkType = 1		# ethernet
*.client.pcapRecorder[*].pcapFile = "results/ethclient.pcap"
*.server.numPcapRecorders = 1
*.server.pcapRecorder[*].pcapLinkType = 1		# ethernet
*.server.pcapRecorder[*].pcapFile = "results/ethserver.pcap"
**.crcMode = "computed"
**.fcsMode = "computed"
**.tcp.mss = 1460
**.tcp.tcpAlgorithmClass = "TcpNewRenoLinux" #"TcpNewReno"
**.tcp.increasedIWEnabled = true
**.tcp.windowScalingSupport = true #To increase advWndw above 65kB
**.tcp.windowScalingFactor = 3
#**.tcp.sackSupport = true #Supported only for TcpReno
**.tcp.delayedAcksEnabled = true
**.tcp.nagleEnabled= false
*.client.tcp.advertisedWindow = 65507 # Window on RoS side
*.client.app[*].io.connectAddress = "server"
#*.server.addInterPackDelay = true
*.server.tcp.advertisedWindow = 65535 # Window on LV side
#*.client.eth[*].mac.mtu = 1500B
#*.client.eth[*].mac.queue.packetCapacity = 334
*.client.packDelayer.delay = 2us#truncnormal(1us,5us)#2us was the median in measurement of pcap file (TCP time between same streams in segments)
*.client.addInterPackDelay = false
*.server.packDelayer.delay = 1us#1us
*.server.addInterPackDelay = false

# result files
output-vector-file = ${resultdir}/MRGen_CAN_stream${seedset}.vec
output-scalar-file = ${resultdir}/MRGen_CAN_stream${seedset}.sca


[Config Distributional]
network = MRGen_CAN_stream

*.rosDataIMU.activePacketSource[*].productionInterval = truncnormal(10,5)*1ms#*normal(0.999809515242399,0.320477298201157)
*.rosDataIMU.activePacketSource[*].packetLength = 8B
*.rosDataIMU.packetServer[*].processingTime=gamma_d(83.4635,2.9755e-07) *1s
*.rosDataIMU.packetServer1[*].processingTime=truncnormal(3.2372e-05,4.8138e-06) *1s
*.rosDataIMU.packetDelayer[*].processingTime=weibull(0.00026918,8.2599) *1s
*.rosDataIMU.packetDelayer1[*].processingTime=weibull(0.00016226,5.023) *1s
*.rosDataIMU.packetDelayer2[*].delay=0 #Constant Value

#*.sinkIMU.packetProcessor[*].packetLength=32B
#*.sinkIMU.packetProcessor[*].packetLength = 17B
*.sinkIMU.dropTailQueueLV1[*].packetCapacity=10000
*.sinkIMU.dropTailQueueLV2[*].packetCapacity=10000
*.sinkIMU.packetServer[*].processingTime = lognormal(-10.4882,0.20913) *1s
*.sinkIMU.custPacketServerWithBufferTimeAndTimeStamp[*].processingTime = 0s
*.sinkIMU.custPacketServerWithBufferTimeAndTimeStamp[*].bufferInterval=1s


[Config TRACEDRIVEN]
network = MRGen_CAN_stream_Tracedriven

*.rosDataIMU.activePacketSource[*].packetLength = 8B
*.rosDataIMU.packetDelayer2[*].delay = 0s
*.rosDataIMU.packetServerROSReplayer*].processingTime = 0s
*.rosDataIMU.packetDelayer[*].processingTime = 0s
*.rosDataIMU.packetServer[*].processingTime = 0s
*.rosDataIMU.packetDelayer1[*].processingTime = 0s
*.rosDataIMU.packetServer1[*].processingTime = 0s
*.rosDataIMU.activePacketSource[*].productionInterval= " 0.01s 0.01s 0.01s 0.01s 0.01s 0.01s 0.01s 0.01s 0.01s 0.01s 0.01s 0.01s 0.01s 0.01s 0.01s 0.01s 0.01s 0.01s 0.01s 0.01s 0.01s 0.01s 0.01s 0.01s 0.01s 0.01s 0.01s 0.01s 0.01s 0.01s 0.01s 0.01s 0.01s 0.01s 0.01s 0.01s 0.01s 0.01s 0.01s 0.01s 0.01s 0.01s 0.01s 0.01s 0.01s 0.01s 0.01s 0.01s 0.01s 0.01s 0.01s 0.01s 0.01s 0.01s 0.01s 0.01s 0.01s 0.01s 0.01s 0.01s 0.01s 0.01s 0.01s 0.01s 0.01s 0.01s 0.01s 0.01s 0.01s 0.01s 0.01s 0.01s 0.01s 0.01s 0.01s 0.01s 0.01s 0.01s 0.01s 0.01s 0.01s 0.01s 0.01s 0.01s 0.01s 0.01s 0.01s 0.01s 0.01s 0.01s 0.01s 0.01s 0.01s 0.01s 0.01s 0.01s 0.01s 0.01s 0.01s 0.01s 0.01s 0.01s 0.01s 0.01s 0.01s 0.01s 0.01s 0.01s 0.01s 0.01s 0.01s 0.01s 0.01s 0.01s 0.01s 0.01s 0.01s 0.01s 0.01s 0.01s 0.01s 0.01s 0.01s 0.01s 0.01s 0.01s 0.01s 0.01s 0.01s 0.01s 0.01s 0.01s 0.01s 0.01s 0.01s 0.01s 0.01s 0.01s 0.01s 0.01s 0.01s 0.01s 0.01s 0.01s 0.01s 0.01s 0.01s 0.01s 0.01s 0.01s 0.01s 0.01s 0.01s 0.01s 0.01s 0.01s 0.01s 0.01s 0.01s 0.01s 0.01s 0.01s 0.01s 0.01s 0.01s 0.01s 0.01s 0.01s 0.01s 0.01s 0.01s 0.01s 0.01s 0.01s 0.01s 0.01s 0.01s 0.01s 0.01s 0.01s 0.01s 0.01s 0.01s 0.01s 0.01s 0.01s 0.01s 0.01s 0.01s 0.01s 0.01s 0.01s 0.01s 0.01s 0.01s 0.01s 0.01s 0.01s 0.01s 0.01s 0.01s 0.01s 0.01s 0.01s 0.01s 0.01s 0.01s 0.01s 0.01s 0.01s 0.01s 0.01s 0.01s 0.01s 0.01s 0.01s 0.01s 0.01s 0.01s 0.01s 0.01s 0.01s 0.01s 0.01s 0.01s 0.01s 0.01s 0.01s 0.01s 0.01s 0.01s 0.01s 0.01s 0.01s 0.01s 0.01s 0.01s 0.01s 0.01s 0.01s 0.01s 0.01s 0.01s 0.01s 0.01s 0.01s 0.01s 0.01s 0.01s 0.01s 0.01s 0.01s 0.01s 0.01s 0.01s 0.01s 0.01s 0.01s 0.01s 0.01s 0.01s 0.01s 0.01s 0.01s 0.01s 0.01s 0.01s 0.01s 0.01s 0.01s 0.01s 0.01s 0.01s 0.01s 0.01s 0.01s 0.01s 0.01s 0.01s 0.01s 0.01s 0.01s 0.01s 0.01s 0.01s 0.01s 0.01s 0.01s 0.01s 0.01s 0.01s 0.01s 0.01s 0.01s 0.01s 0.01s 0.01s 0.01s 0.01s 0.01s 0.01s 0.01s 0.01s 0.01s 0.01s 0.01s 0.01s 0.01s 0.01s 0.01s 0.01s 0.01s 0.01s 0.01s 0.01s 0.01s 0.01s 0.01s 0.01s 0.01s 0.01s 0.01s 0.01s 0.01s 0.01s 0.01s 0.01s 0.01s 0.01s 0.01s 0.01s 0.01s 0.01s 0.01s 0.01s 0.01s 0.01s 0.01s 0.01s 0.01s 0.01s 0.01s 0.01s 0.01s 0.01s 0.01s 0.01s 0.01s 0.01s 0.01s 0.01s 0.01s 0.01s 0.01s 0.01s 0.01s 0.01s 0.01s 0.01s 0.01s 0.01s 0.01s 0.01s 0.01s 0.01s 0.01s 0.01s 0.01s 0.01s 0.01s 0.01s 0.01s 0.01s 0.01s 0.01s 0.01s 0.01s 0.01s 0.01s 0.01s 0.01s 0.01s 0.01s 0.01s 0.01s 0.01s 0.01s 0.01s 0.01s 0.01s 0.01s 0.01s 0.01s 0.01s 0.01s 0.01s 0.01s 0.01s 0.01s 0.01s 0.01s 0.01s 0.01s 0.01s 0.01s 0.01s 0.01s 0.01s 0.01s 0.01s 0.01s 0.01s 0.01s 0.01s 0.01s 0.01s 0.01s 0.01s 0.01s 0.01s 0.01s 0.01s 0.01s 0.01s 0.01s 0.01s 0.01s 0.01s 0.01s 0.01s 0.01s 0.01s 0.01s 0.01s 0.01s 0.01s 0.01s 0.01s 0.01s 0.01s 0.01s 0.01s 0.01s 0.01s 0.01s 0.01s 0.01s 0.01s 0.01s 0.01s 0.01s 0.01s 0.01s 0.01s 0.01s 0.01s 0.01s 0.01s 0.01s 0.01s 0.01s 0.01s 0.01s 0.01s 0.01s 0.01s 0.01s 0.01s 0.01s 0.01s 0.01s 0.01s 0.01s 0.01s 0.01s 0.01s 0.01s 0.01s 0.01s 0.01s 0.01s 0.01s 0.01s 0.01s 0.01s 0.01s 0.01s 0.01s 0.01s 0.01s 0.01s 0.01s 0.01s 0.01s 0.01s 0.01s 0.01s 0.01s 0.01s 0.01s 0.01s 0.01s 0.01s 0.01s 0.01s 0.01s 0.01s 0.01s 0.01s 0.01s 0.01s 0.01s 0.01s 0.01s 0.01s 0.01s 0.01s 0.01s 0.01s 0.01s 0.01s 0.01s 0.01s 0.01s 0.01s 0.01s 0.01s 0.01s 0.01s 0.01s 0.01s 0.01s 0.01s 0.01s 0.01s 0.01s 0.01s 0.01s 0.01s 0.01s 0.01s 0.01s 0.01s 0.01s 0.01s 0.01s 0.01s 0.01s 0.01s 0.01s 0.01s 0.01s 0.01s 0.01s 0.01s 0.01s 0.01s 0.01s 0.01s 0.01s 0.01s 0.01s 0.01s 0.01s 0.01s 0.01s 0.01s 0.01s 0.01s 0.01s 0.01s 0.01s 0.01s 0.01s 0.01s 0.01s 0.01s 0.01s 0.01s 0.01s 0.01s 0.01s 0.01s 0.01s 0.01s 0.01s 0.01s 0.01s 0.01s 0.01s 0.01s 0.01s 0.01s 0.01s 0.01s 0.01s 0.01s 0.01s 0.01s 0.01s 0.01s 0.01s 0.01s 0.01s 0.01s 0.01s 0.01s 0.01s 0.01s 0.01s 0.01s 0.01s 0.01s 0.01s 0.01s 0.01s 0.01s 0.01s 0.01s 0.01s 0.01s 0.01s 0.01s 0.01s 0.01s 0.01s 0.01s 0.01s 0.01s 0.01s 0.01s 0.01s 0.01s 0.01s 0.01s 0.01s 0.01s 0.01s 0.01s 0.01s 0.01s 0.01s 0.01s 0.01s 0.01s 0.01s 0.01s 0.01s 0.01s 0.01s 0.01s 0.01s 0.01s 0.01s 0.01s 0.01s 0.01s 0.01s 0.01s 0.01s 0.01s 0.01s 0.01s 0.01s 0.01s 0.01s 0.01s 0.01s 0.01s 0.01s 0.01s 0.01s 0.01s 0.01s 0.01s 0.01s 0.01s 0.01s 0.01s 0.01s 0.01s 0.01s 0.01s 0.01s 0.01s 0.01s 0.01s 0.01s 0.01s 0.01s 0.01s 0.01s 0.01s 0.01s 0.01s 0.01s 0.01s 0.01s 0.01s 0.01s 0.01s 0.01s 0.01s 0.01s 0.01s 0.01s 0.01s 0.01s 0.01s 0.01s 0.01s 0.01s 0.01s 0.01s 0.01s 0.01s 0.01s 0.01s 0.01s 0.01s 0.01s 0.01s 0.01s 0.01s 0.01s 0.01s 0.01s 0.01s 0.01s 0.01s 0.01s 0.01s 0.01s 0.01s 0.01s 0.01s 0.01s 0.01s 0.01s 0.01s 0.01s 0.01s 0.01s 0.01s 0.01s 0.01s 0.01s 0.01s 0.01s 0.01s 0.01s 0.01s 0.01s 0.01s 0.01s 0.01s 0.01s 0.01s 0.01s 0.01s 0.01s 0.01s 0.01s 0.01s 0.01s 0.01s 0.01s 0.01s 0.01s 0.01s 0.01s 0.01s 0.01s 0.01s 0.01s 0.01s 0.01s 0.01s 0.01s 0.01s 0.01s 0.01s 0.01s 0.01s 0.01s 0.01s 0.01s 0.01s 0.01s 0.01s 0.01s 0.01s 0.01s 0.01s 0.01s 0.01s 0.01s 0.01s 0.01s 0.01s 0.01s 0.01s 0.01s 0.01s 0.01s 0.01s 0.01s 0.01s 0.01s 0.01s 0.01s 0.01s 0.01s 0.01s 0.01s 0.01s 0.01s 0.01s 0.01s 0.01s 0.01s 0.01s 0.01s 0.01s 0.01s 0.01s 0.01s 0.01s 0.01s 0.01s 0.01s 0.01s 0.01s 0.01s 0.01s 0.01s 0.01s 0.01s 0.01s 0.01s 0.01s 0.01s 0.01s 0.01s 0.01s 0.01s 0.01s 0.01s 0.01s 0.01s 0.01s 0.01s 0.01s 0.01s 0.01s 0.01s 0.01s 0.01s 0.01s 0.01s 0.01s 0.01s 0.01s 0.01s 0.01s 0.01s 0.01s 0.01s 0.01s 0.01s 0.01s 0.01s 0.01s 0.01s 0.01s 0.01s 0.01s 0.01s 0.01s 0.01s 0.01s 0.01s 0.01s 0.01s 0.01s 0.01s 0.01s 0.01s 0.01s 0.01s 0.01s 0.01s 0.01s 0.01s 0.01s 0.01s 0.01s 0.01s 0.01s 0.01s 0.01s 0.01s 0.01s 0.01s 0.01s 0.01s 0.01s 0.01s 0.01s 0.01s 0.01s 0.01s 0.01s 0.01s 0.01s 0.01s 0.01s 0.01s 0.01s 0.01s 0.01s 0.01s 0.01s 0.01s 0.01s 0.01s 0.01s 0.01s 0.01s 0.01s 0.01s 0.01s 0.01s 0.01s 0.01s 0.01s 0.01s 0.01s 0.01s 0.01s 0.01s 0.01s 0.01s 0.01s 0.01s 0.01s 0.01s 0.01s 0.01s 0.01s 0.01s 0.01s 0.01s 0.01s 0.01s 0.01s 0.01s 0.01s 0.01s 0.01s 0.01s 0.01s 0.01s 0.01s 0.01s 0.01s 0.01s 0.01s 0.01s 0.01s 0.01s 0.01s 0.01s 0.01s 0.01s 0.01s 0.01s 0.01s 0.01s 0.01s 0.01s 0.01s 0.01s 0.01s 0.01s 0.01s 0.01s 0.01s 0.01s 0.01s 0.01s 0.01s 0.01s 0.01s 0.01s 0.01s 0.01s 0.01s 0.01s 0.01s 0.01s 0.01s 0.01s 0.01s 0.01s 0.01s 0.01s 0.01s 0.01s 0.01s 0.01s 0.01s 0.01s 0.01s 0.01s 0.01s 0.01s 0.01s 0.01s 0.01s 0.01s 0.01s 0.01s 0.01s 0.01s 0.01s 0.01s 0.01s 0.01s 0.01s 0.01s 0.01s 0.01s 0.01s 0.01s 0.01s 0.01s 0.01s 0.01s 0.01s 0.01s 0.01s 0.01s 0.01s 0.01s 0.01s 0.01s 0.01s 0.01s 0.01s 0.01s 0.01s 0.01s 0.01s 0.01s 0.01s 0.01s 0.01s 0.01s 0.01s 0.01s 0.01s 0.01s 0.01s 0.01s 0.01s 0.01s 0.01s 0.01s 0.01s 0.01s 0.01s 0.01s 0.01s 0.01s 0.01s 0.01s 0.01s 0.01s 0.01s 0.01s 0.01s 0.01s 0.01s 0.01s 0.01s 0.01s 0.01s 0.01s 0.01s 0.01s 0.01s 0.01s 0.01s 0.01s 0.01s 0.01s 0.01s 0.01s 0.01s 0.01s 0.01s 0.01s 0.01s 0.01s 0.01s 0.01s 0.01s 0.01s 0.01s 0.01s 0.01s 0.01s 0.01s 0.01s 0.01s 0.01s 0.01s 0.01s 0.01s 0.01s 0.01s 0.01s 0.01s 0.01s 0.01s 0.01s 0.01s 0.01s 0.01s 0.01s 0.01s 0.01s 0.01s 0.01s 0.01s 0.01s 0.01s 0.01s 0.01s 0.01s 0.01s 0.01s 0.01s 0.01s 0.01s 0.01s 0.01s 0.01s 0.01s 0.01s 0.01s 0.01s 0.01s 0.01s 0.01s 0.01s 0.01s 0.01s 0.01s 0.01s 0.01s 0.01s 0.01s 0.01s 0.01s 0.01s 0.01s 0.01s 0.01s 0.01s 0.01s 0.01s 0.01s 0.01s 0.01s 0.01s 0.01s 0.01s 0.01s 0.01s 0.01s 0.01s 0.01s 0.01s 0.01s 0.01s 0.01s 0.01s 0.01s 0.01s 0.01s 0.01s 0.01s 0.01s 0.01s 0.01s 0.01s 0.01s 0.01s 0.01s 0.01s 0.01s 0.01s 0.01s 0.01s 0.01s 0.01s 0.01s 0.01s 0.01s 0.01s 0.01s 0.01s 0.01s 0.01s 0.01s 0.01s 0.01s 0.01s 0.01s 0.01s 0.01s 0.01s 0.01s 0.01s 0.01s 0.01s 0.01s 0.01s 0.01s 0.01s 0.01s 0.01s 0.01s 0.01s 0.01s 0.01s 0.01s 0.01s 0.01s 0.01s 0.01s 0.01s 0.01s 0.01s 0.01s 0.01s 0.01s 0.01s 0.01s 0.01s 0.01s 0.01s 0.01s 0.01s 0.01s 0.01s 0.01s 0.01s 0.01s 0.01s 0.01s 0.01s 0.01s 0.01s 0.01s 0.01s 0.01s 0.01s 0.01s 0.01s 0.01s 0.01s 0.01s 0.01s 0.01s 0.01s 0.01s 0.01s 0.01s 0.01s 0.01s 0.01s 0.01s 0.01s 0.01s 0.01s 0.01s 0.01s 0.01s 0.01s 0.01s 0.01s 0.01s 0.01s 0.01s 0.01s 0.01s 0.01s 0.01s 0.01s 0.01s 0.01s 0.01s 0.01s 0.01s 0.01s 0.01s 0.01s 0.01s 0.01s 0.01s 0.01s 0.01s 0.01s 0.01s 0.01s 0.01s 0.01s 0.01s 0.01s 0.01s 0.01s 0.01s 0.01s 0.01s 0.01s 0.01s 0.01s 0.01s 0.01s 0.01s 0.01s 0.01s 0.01s 0.01s 0.01s 0.01s 0.01s 0.01s 0.01s 0.01s 0.01s 0.01s 0.01s 0.01s 0.01s 0.01s 0.01s 0.01s 0.01s 0.01s 0.01s 0.01s 0.01s 0.01s 0.01s 0.01s 0.01s 0.01s 0.01s 0.01s 0.01s 0.01s 0.01s 0.01s 0.01s 0.01s 0.01s 0.01s 0.01s 0.01s 0.01s 0.01s 0.01s 0.01s 0.01s 0.01s 0.01s 0.01s 0.01s 0.01s 0.01s 0.01s 0.01s 0.01s 0.01s 0.01s 0.01s 0.01s 0.01s 0.01s 0.01s 0.01s 0.01s 0.01s 0.01s 0.01s 0.01s 0.01s 0.01s 0.01s 0.01s 0.01s 0.01s 0.01s 0.01s 0.01s 0.01s 0.01s 0.01s 0.01s 0.01s 0.01s 0.01s 0.01s 0.01s 0.01s 0.01s 0.01s 0.01s 0.01s 0.01s 0.01s 0.01s 0.01s 0.01s 0.01s 0.01s 0.01s 0.01s 0.01s 0.01s 0.01s 0.01s 0.01s 0.01s 0.01s 0.01s 0.01s 0.01s 0.01s 0.01s 0.01s 0.01s 0.01s 0.01s 0.01s 0.01s 0.01s 0.01s 0.01s 0.01s 0.01s 0.01s 0.01s 0.01s 0.01s 0.01s 0.01s 0.01s 0.01s 0.01s 0.01s 0.01s 0.01s 0.01s 0.01s 0.01s 0.01s 0.01s 0.01s 0.01s 0.01s 0.01s 0.01s 0.01s 0.01s 0.01s 0.01s 0.01s 0.01s 0.01s 0.01s 0.01s 0.01s 0.01s 0.01s 0.01s 0.01s 0.01s 0.01s 0.01s 0.01s 0.01s 0.01s 0.01s 0.01s 0.01s 0.01s 0.01s 0.01s 0.01s 0.01s 0.01s 0.01s 0.01s 0.01s 0.01s 0.01s 0.01s 0.01s 0.01s 0.01s 0.01s 0.01s 0.01s 0.01s 0.01s 0.01s 0.01s 0.01s 0.01s 0.01s 0.01s 0.01s 0.01s 0.01s 0.01s 0.01s 0.01s 0.01s 0.01s 0.01s 0.01s 0.01s 0.01s 0.01s 0.01s 0.01s 0.01s 0.01s 0.01s 0.01s 0.01s 0.01s 0.01s 0.01s 0.01s 0.01s 0.01s 0.01s 0.01s 0.01s 0.01s 0.01s 0.01s 0.01s 0.01s 0.01s 0.01s 0.01s 0.01s 0.01s 0.01s 0.01s 0.01s 0.01s 0.01s 0.01s 0.01s 0.01s 0.01s 0.01s 0.01s 0.01s 0.01s 0.01s 0.01s 0.01s 0.01s 0.01s 0.01s 0.01s 0.01s 0.01s 0.01s 0.01s 0.01s 0.01s 0.01s 0.01s 0.01s 0.01s 0.01s 0.01s 0.01s 0.01s 0.01s 0.01s 0.01s 0.01s 0.01s 0.01s 0.01s 0.01s 0.01s 0.01s 0.01s 0.01s 0.01s 0.01s 0.01s 0.01s 0.01s 0.01s 0.01s 0.01s 0.01s 0.01s 0.01s 0.01s 0.01s 0.01s 0.01s 0.01s 0.01s 0.01s 0.01s 0.01s 0.01s 0.01s 0.01s 0.01s 0.01s 0.01s 0.01s 0.01s 0.01s 0.01s 0.01s 0.01s 0.01s 0.01s 0.01s 0.01s 0.01s 0.01s 0.01s 0.01s 0.01s 0.01s 0.01s 0.01s 0.01s 0.01s 0.01s 0.01s 0.01s 0.01s 0.01s 0.01s 0.01s 0.01s 0.01s 0.01s 0.01s 0.01s 0.01s 0.01s 0.01s 0.01s 0.01s 0.01s 0.01s 0.01s 0.01s 0.01s 0.01s 0.01s 0.01s 0.01s 0.01s 0.01s 0.01s 0.01s 0.01s 0.01s 0.01s 0.01s 0.01s 0.01s 0.01s 0.01s 0.01s 0.01s 0.01s 0.01s 0.01s 0.01s 0.01s 0.01s 0.01s 0.01s 0.01s 0.01s 0.01s 0.01s 0.01s 0.01s 0.01s 0.01s 0.01s 0.01s 0.01s 0.01s 0.01s 0.01s 0.01s 0.01s 0.01s 0.01s 0.01s 0.01s 0.01s 0.01s 0.01s 0.01s 0.01s 0.01s 0.01s 0.01s 0.01s 0.01s 0.01s 0.01s 0.01s 0.01s 0.01s 0.01s 0.01s 0.01s 0.01s 0.01s 0.01s 0.01s 0.01s 0.01s 0.01s 0.01s 0.01s 0.01s 0.01s 0.01s 0.01s 0.01s 0.01s 0.01s 0.01s 0.01s 0.01s 0.01s 0.01s 0.01s 0.01s 0.01s 0.01s 0.01s 0.01s 0.01s 0.01s 0.01s 0.01s 0.01s 0.01s 0.01s 0.01s 0.01s 0.01s 0.01s 0.01s 0.01s 0.01s 0.01s 0.01s 0.01s 0.01s 0.01s 0.01s 0.01s 0.01s 0.01s 0.01s 0.01s 0.01s 0.01s 0.01s 0.01s 0.01s 0.01s 0.01s 0.01s 0.01s 0.01s 0.01s 0.01s 0.01s 0.01s 0.01s 0.01s 0.01s 0.01s 0.01s 0.01s 0.01s 0.01s 0.01s 0.01s 0.01s 0.01s 0.01s 0.01s 0.01s 0.01s 0.01s 0.01s 0.01s 0.01s 0.01s 0.01s 0.01s 0.01s 0.01s 0.01s 0.01s 0.01s 0.01s 0.01s 0.01s 0.01s 0.01s 0.01s 0.01s 0.01s 0.01s 0.01s 0.01s 0.01s 0.01s 0.01s 0.01s 0.01s 0.01s 0.01s 0.01s 0.01s 0.01s 0.01s 0.01s 0.01s 0.01s 0.01s 0.01s 0.01s 0.01s 0.01s 0.01s 0.01s 0.01s 0.01s 0.01s 0.01s 0.01s 0.01s 0.01s 0.01s 0.01s 0.01s 0.01s 0.01s 0.01s 0.01s 0.01s 0.01s 0.01s 0.01s 0.01s 0.01s 0.01s 0.01s 0.01s 0.01s 0.01s 0.01s 0.01s 0.01s 0.01s 0.01s 0.01s 0.01s 0.01s 0.01s 0.01s 0.01s 0.01s 0.01s 0.01s 0.01s 0.01s 0.01s 0.01s 0.01s 0.01s 0.01s 0.01s 0.01s 0.01s 0.01s 0.01s 0.01s 0.01s 0.01s 0.01s 0.01s 0.01s 0.01s 0.01s 0.01s 0.01s 0.01s 0.01s 0.01s 0.01s 0.01s 0.01s 0.01s 0.01s 0.01s 0.01s 0.01s 0.01s 0.01s 0.01s 0.01s 0.01s 0.01s 0.01s 0.01s 0.01s 0.01s 0.01s 0.01s 0.01s 0.01s 0.01s 0.01s 0.01s 0.01s 0.01s 0.01s 0.01s 0.01s 0.01s 0.01s 0.01s 0.01s 0.01s 0.01s 0.01s 0.01s 0.01s 0.01s 0.01s 0.01s 0.01s 0.01s 0.01s 0.01s 0.01s 0.01s 0.01s 0.01s 0.01s 0.01s 0.01s 0.01s 0.01s 0.01s 0.01s 0.01s 0.01s 0.01s 0.01s 0.01s 0.01s 0.01s 0.01s 0.01s 0.01s 0.01s 0.01s 0.01s 0.01s 0.01s 0.01s 0.01s 0.01s 0.01s 0.01s 0.01s 0.01s 0.01s 0.01s 0.01s 0.01s 0.01s 0.01s 0.01s 0.01s 0.01s 0.01s 0.01s 0.01s 0.01s 0.01s 0.01s 0.01s 0.01s 0.01s 0.01s 0.01s 0.01s 0.01s 0.01s 0.01s 0.01s 0.01s 0.01s 0.01s 0.01s 0.01s 0.01s 0.01s 0.01s 0.01s 0.01s 0.01s 0.01s 0.01s 0.01s 0.01s 0.01s 0.01s 0.01s 0.01s 0.01s 0.01s 0.01s 0.01s 0.01s 0.01s 0.01s 0.01s 0.01s 0.01s 0.01s 0.01s 0.01s 0.01s 0.01s 0.01s 0.01s 0.01s 0.01s 0.01s 0.01s 0.01s 0.01s 0.01s 0.01s 0.01s 0.01s 0.01s 0.01s 0.01s 0.01s 0.01s 0.01s 0.01s 0.01s 0.01s 0.01s 0.01s 0.01s 0.01s 0.01s 0.01s 0.01s 0.01s 0.01s 0.01s 0.01s 0.01s 0.01s 0.01s 0.01s 0.01s 0.01s 0.01s 0.01s 0.01s 0.01s 0.01s 0.01s 0.01s 0.01s 0.01s 0.01s 0.01s 0.01s 0.01s 0.01s 0.01s 0.01s 0.01s 0.01s 0.01s 0.01s 0.01s 0.01s 0.01s 0.01s 0.01s 0.01s 0.01s 0.01s 0.01s 0.01s 0.01s 0.01s 0.01s 0.01s 0.01s 0.01s 0.01s 0.01s 0.01s 0.01s 0.01s 0.01s 0.01s 0.01s 0.01s 0.01s 0.01s 0.01s 0.01s 0.01s 0.01s 0.01s 0.01s 0.01s 0.01s 0.01s 0.01s 0.01s 0.01s 0.01s 0.01s 0.01s 0.01s 0.01s 0.01s 0.01s 0.01s 0.01s 0.01s 0.01s 0.01s 0.01s 0.01s 0.01s 0.01s 0.01s 0.01s 0.01s 0.01s 0.01s 0.01s 0.01s 0.01s 0.01s 0.01s 0.01s 0.01s 0.01s 0.01s 0.01s 0.01s 0.01s 0.01s 0.01s 0.01s 0.01s 0.01s 0.01s 0.01s 0.01s 0.01s 0.01s 0.01s 0.01s 0.01s 0.01s 0.01s 0.01s 0.01s 0.01s 0.01s 0.01s 0.01s 0.01s 0.01s 0.01s 0.01s 0.01s 0.01s 0.01s 0.01s 0.01s 0.01s 0.01s 0.01s 0.01s 0.01s 0.01s 0.01s 0.01s 0.01s 0.01s 0.01s 0.01s 0.01s 0.01s 0.01s 0.01s 0.01s 0.01s 0.01s 0.01s 0.01s 0.01s 0.01s 0.01s 0.01s 0.01s 0.01s 0.01s 0.01s 0.01s 0.01s 0.01s 0.01s 0.01s 0.01s 0.01s 0.01s 0.01s 0.01s 0.01s 0.01s 0.01s 0.01s 0.01s 0.01s 0.01s 0.01s 0.01s 0.01s 0.01s 0.01s 0.01s 0.01s 0.01s 0.01s 0.01s 0.01s 0.01s 0.01s 0.01s 0.01s 0.01s 0.01s 0.01s 0.01s 0.01s 0.01s 0.01s 0.01s 0.01s 0.01s 0.01s 0.01s 0.01s 0.01s 0.01s 0.01s 0.01s 0.01s 0.01s 0.01s 0.01s 0.01s 0.01s 0.01s 0.01s 0.01s 0.01s 0.01s 0.01s 0.01s 0.01s 0.01s 0.01s 0.01s 0.01s 0.01s 0.01s 0.01s 0.01s 0.01s 0.01s 0.01s 0.01s 0.01s 0.01s 0.01s 0.01s 0.01s 0.01s 0.01s 0.01s 0.01s 0.01s 0.01s 0.01s 0.01s 0.01s 0.01s 0.01s 0.01s 0.01s 0.01s 0.01s 0.01s 0.01s 0.01s 0.01s 0.01s 0.01s 0.01s 0.01s 0.01s 0.01s 0.01s 0.01s 0.01s 0.01s 0.01s 0.01s 0.01s 0.01s 0.01s 0.01s 0.01s 0.01s 0.01s 0.01s 0.01s 0.01s 0.01s 0.01s 0.01s 0.01s 0.01s 0.01s 0.01s 0.01s 0.01s 0.01s 0.01s 0.01s 0.01s 0.01s 0.01s 0.01s 0.01s 0.01s 0.01s 0.01s 0.01s 0.01s 0.01s 0.01s 0.01s 0.01s 0.01s 0.01s 0.01s 0.01s 0.01s 0.01s 0.01s 0.01s 0.01s 0.01s 0.01s 0.01s 0.01s 0.01s 0.01s 0.01s 0.01s 0.01s 0.01s 0.01s 0.01s 0.01s 0.01s 0.01s 0.01s 0.01s 0.01s 0.01s 0.01s 0.01s 0.01s 0.01s 0.01s 0.01s 0.01s 0.01s 0.01s 0.01s 0.01s 0.01s 0.01s 0.01s 0.01s 0.01s 0.01s 0.01s 0.01s 0.01s 0.01s 0.01s 0.01s 0.01s 0.01s 0.01s 0.01s 0.01s 0.01s 0.01s 0.01s 0.01s 0.01s 0.01s 0.01s 0.01s 0.01s 0.01s 0.01s 0.01s 0.01s 0.01s 0.01s 0.01s 0.01s 0.01s 0.01s 0.01s 0.01s 0.01s 0.01s 0.01s 0.01s 0.01s 0.01s 0.01s 0.01s 0.01s 0.01s 0.01s 0.01s 0.01s 0.01s 0.01s 0.01s 0.01s 0.01s 0.01s 0.01s 0.01s 0.01s 0.01s 0.01s 0.01s 0.01s 0.01s 0.01s 0.01s 0.01s 0.01s 0.01s 0.01s 0.01s 0.01s 0.01s 0.01s 0.01s 0.01s 0.01s 0.01s 0.01s 0.01s 0.01s 0.01s 0.01s 0.01s 0.01s 0.01s 0.01s 0.01s 0.01s 0.01s 0.01s 0.01s 0.01s 0.01s 0.01s 0.01s 0.01s 0.01s 0.01s 0.01s 0.01s 0.01s 0.01s 0.01s 0.01s 0.01s 0.01s 0.01s 0.01s 0.01s 0.01s 0.01s 0.01s 0.01s 0.01s 0.01s 0.01s 0.01s 0.01s 0.01s 0.01s 0.01s 0.01s 0.01s 0.01s 0.01s 0.01s 0.01s 0.01s 0.01s 0.01s 0.01s 0.01s 0.01s 0.01s 0.01s 0.01s 0.01s 0.01s 0.01s 0.01s 0.01s 0.01s 0.01s 0.01s 0.01s 0.01s 0.01s 0.01s 0.01s 0.01s 0.01s 0.01s 0.01s 0.01s 0.01s 0.01s 0.01s 0.01s 0.01s 0.01s 0.01s 0.01s 0.01s 0.01s 0.01s 0.01s 0.01s 0.01s 0.01s 0.01s 0.01s 0.01s 0.01s 0.01s 0.01s 0.01s 0.01s 0.01s 0.01s 0.01s 0.01s 0.01s 0.01s 0.01s 0.01s 0.01s 0.01s 0.01s 0.01s 0.01s 0.01s 0.01s 0.01s 0.01s 0.01s 0.01s 0.01s 0.01s 0.01s 0.01s 0.01s 0.01s 0.01s 0.01s 0.01s 0.01s 0.01s 0.01s 0.01s 0.01s 0.01s 0.01s 0.01s 0.01s 0.01s 0.01s 0.01s 0.01s 0.01s 0.01s 0.01s 0.01s 0.01s 0.01s 0.01s 0.01s 0.01s 0.01s 0.01s 0.01s 0.01s 0.01s 0.01s 0.01s 0.01s 0.01s 0.01s 0.01s 0.01s 0.01s 0.01s 0.01s 0.01s 0.01s 0.01s 0.01s 0.01s 0.01s 0.01s 0.01s 0.01s 0.01s 0.01s 0.01s 0.01s 0.01s 0.01s 0.01s 0.01s 0.01s 0.01s 0.01s 0.01s 0.01s 0.01s 0.01s 0.01s 0.01s 0.01s 0.01s 0.01s 0.01s 0.01s 0.01s 0.01s 0.01s 0.01s 0.01s 0.01s 0.01s 0.01s 0.01s 0.01s 0.01s 0.01s 0.01s 0.01s 0.01s 0.01s 0.01s 0.01s 0.01s 0.01s 0.01s 0.01s 0.01s 0.01s 0.01s 0.01s 0.01s 0.01s 0.01s 0.01s 0.01s 0.01s 0.01s 0.01s 0.01s 0.01s 0.01s 0.01s 0.01s 0.01s 0.01s 0.01s 0.01s 0.01s 0.01s 0.01s 0.01s 0.01s 0.01s 0.01s 0.01s 0.01s 0.01s 0.01s 0.01s 0.01s 0.01s 0.01s 0.01s 0.01s 0.01s 0.01s 0.01s 0.01s 0.01s 0.01s 0.01s 0.01s 0.01s 0.01s 0.01s 0.01s 0.01s 0.01s 0.01s 0.01s 0.01s 0.01s 0.01s 0.01s 0.01s 0.01s 0.01s 0.01s 0.01s 0.01s 0.01s 0.01s 0.01s 0.01s 0.01s 0.01s 0.01s 0.01s 0.01s 0.01s 0.01s 0.01s 0.01s 0.01s 0.01s 0.01s 0.01s 0.01s 0.01s 0.01s 0.01s 0.01s 0.01s 0.01s 0.01s 0.01s 0.01s 0.01s 0.01s 0.01s 0.01s 0.01s 0.01s 0.01s 0.01s 0.01s 0.01s 0.01s 0.01s 0.01s 0.01s 0.01s 0.01s 0.01s 0.01s 0.01s 0.01s 0.01s 0.01s 0.01s 0.01s 0.01s 0.01s 0.01s 0.01s 0.01s 0.01s 0.01s 0.01s 0.01s 0.01s 0.01s 0.01s 0.01s 0.01s 0.01s 0.01s 0.01s 0.01s 0.01s 0.01s 0.01s 0.01s 0.01s 0.01s 0.01s 0.01s 0.01s 0.01s 0.01s 0.01s 0.01s 0.01s 0.01s 0.01s 0.01s 0.01s 0.01s 0.01s 0.01s 0.01s 0.01s 0.01s 0.01s 0.01s 0.01s 0.01s 0.01s 0.01s 0.01s 0.01s 0.01s 0.01s 0.01s 0.01s 0.01s 0.01s 0.01s 0.01s 0.01s 0.01s 0.01s 0.01s 0.01s 0.01s 0.01s 0.01s 0.01s 0.01s 0.01s 0.01s 0.01s 0.01s 0.01s 0.01s 0.01s 0.01s 0.01s 0.01s 0.01s 0.01s 0.01s 0.01s 0.01s 0.01s 0.01s 0.01s 0.01s 0.01s 0.01s 0.01s 0.01s 0.01s 0.01s 0.01s 0.01s 0.01s 0.01s 0.01s 0.01s 0.01s 0.01s 0.01s 0.01s 0.01s 0.01s 0.01s 0.01s 0.01s 0.01s 0.01s 0.01s 0.01s 0.01s 0.01s 0.01s 0.01s 0.01s 0.01s 0.01s 0.01s 0.01s 0.01s 0.01s 0.01s 0.01s 0.01s 0.01s 0.01s 0.01s 0.01s 0.01s 0.01s 0.01s 0.01s 0.01s 0.01s 0.01s 0.01s 0.01s 0.01s 0.01s 0.01s 0.01s 0.01s 0.01s 0.01s 0.01s 0.01s 0.01s 0.01s 0.01s 0.01s 0.01s 0.01s 0.01s 0.01s 0.01s 0.01s 0.01s 0.01s 0.01s 0.01s 0.01s 0.01s 0.01s 0.01s 0.01s 0.01s 0.01s 0.01s 0.01s 0.01s 0.01s 0.01s 0.01s 0.01s 0.01s 0.01s 0.01s 0.01s 0.01s 0.01s 0.01s 0.01s 0.01s 0.01s 0.01s 0.01s 0.01s 0.01s 0.01s 0.01s 0.01s 0.01s 0.01s 0.01s 0.01s 0.01s 0.01s 0.01s 0.01s 0.01s 0.01s 0.01s 0.01s 0.01s 0.01s 0.01s 0.01s 0.01s 0.01s 0.01s 0.01s 0.01s 0.01s 0.01s 0.01s 0.01s 0.01s 0.01s 0.01s 0.01s 0.01s 0.01s 0.01s 0.01s 0.01s 0.01s 0.01s 0.01s 0.01s 0.01s 0.01s 0.01s 0.01s 0.01s 0.01s 0.01s 0.01s 0.01s 0.01s 0.01s 0.01s 0.01s 0.01s 0.01s 0.01s 0.01s 0.01s 0.01s 0.01s 0.01s 0.01s 0.01s 0.01s 0.01s 0.01s 0.01s 0.01s 0.01s 0.01s 0.01s 0.01s 0.01s 0.01s 0.01s 0.01s 0.01s 0.01s 0.01s 0.01s 0.01s 0.01s 0.01s 0.01s 0.01s 0.01s 0.01s 0.01s 0.01s 0.01s 0.01s 0.01s 0.01s 0.01s 0.01s 0.01s 0.01s 0.01s 0.01s 0.01s 0.01s 0.01s 0.01s 0.01s 0.01s 0.01s 0.01s 0.01s 0.01s 0.01s 0.01s 0.01s 0.01s 0.01s 0.01s 0.01s 0.01s 0.01s 0.01s 0.01s 0.01s 0.01s 0.01s 0.01s 0.01s 0.01s 0.01s 0.01s 0.01s 0.01s 0.01s 0.01s 0.01s 0.01s 0.01s 0.01s 0.01s 0.01s 0.01s 0.01s 0.01s 0.01s 0.01s 0.01s 0.01s 0.01s 0.01s 0.01s 0.01s 0.01s 0.01s 0.01s 0.01s 0.01s 0.01s 0.01s 0.01s 0.01s 0.01s 0.01s 0.01s 0.01s 0.01s 0.01s 0.01s 0.01s 0.01s 0.01s 0.01s 0.01s 0.01s 0.01s 0.01s 0.01s 0.01s 0.01s 0.01s 0.01s 0.01s 0.01s 0.01s 0.01s 0.01s 0.01s 0.01s 0.01s 0.01s 0.01s 0.01s 0.01s 0.01s 0.01s 0.01s 0.01s 0.01s 0.01s 0.01s 0.01s 0.01s 0.01s 0.01s 0.01s 0.01s 0.01s 0.01s 0.01s 0.01s 0.01s 0.01s 0.01s 0.01s 0.01s 0.01s 0.01s 0.01s 0.01s 0.01s 0.01s 0.01s 0.01s 0.01s 0.01s 0.01s 0.01s 0.01s 0.01s 0.01s 0.01s 0.01s 0.01s 0.01s 0.01s 0.01s 0.01s 0.01s 0.01s 0.01s 0.01s 0.01s 0.01s 0.01s 0.01s 0.01s 0.01s 0.01s 0.01s 0.01s 0.01s 0.01s 0.01s 0.01s 0.01s 0.01s 0.01s 0.01s 0.01s 0.01s 0.01s 0.01s 0.01s 0.01s 0.01s 0.01s 0.01s 0.01s 0.01s 0.01s 0.01s 0.01s 0.01s 0.01s 0.01s 0.01s 0.01s 0.01s 0.01s 0.01s 0.01s 0.01s 0.01s 0.01s 0.01s 0.01s 0.01s 0.01s 0.01s 0.01s 0.01s 0.01s 0.01s 0.01s 0.01s 0.01s 0.01s 0.01s 0.01s 0.01s 0.01s 0.01s 0.01s 0.01s 0.01s 0.01s 0.01s 0.01s 0.01s 0.01s 0.01s 0.01s 0.01s 0.01s 0.01s 0.01s 0.01s 0.01s 0.01s 0.01s 0.01s 0.01s 0.01s 0.01s 0.01s 0.01s 0.01s 0.01s 0.01s 0.01s 0.01s 0.01s 0.01s 0.01s 0.01s 0.01s 0.01s 0.01s 0.01s 0.01s 0.01s 0.01s 0.01s 0.01s 0.01s 0.01s 0.01s 0.01s 0.01s 0.01s 0.01s 0.01s 0.01s 0.01s 0.01s 0.01s 0.01s 0.01s 0.01s 0.01s 0.01s 0.01s 0.01s 0.01s 0.01s 0.01s 0.01s 0.01s 0.01s 0.01s 0.01s 0.01s 0.01s 0.01s 0.01s 0.01s 0.01s 0.01s 0.01s 0.01s 0.01s 0.01s 0.01s 0.01s 0.01s 0.01s 0.01s 0.01s 0.01s 0.01s 0.01s 0.01s 0.01s 0.01s 0.01s 0.01s 0.01s 0.01s 0.01s 0.01s 0.01s 0.01s 0.01s 0.01s 0.01s 0.01s 0.01s 0.01s 0.01s 0.01s 0.01s 0.01s 0.01s 0.01s 0.01s 0.01s 0.01s 0.01s 0.01s 0.01s 0.01s 0.01s 0.01s 0.01s 0.01s 0.01s 0.01s 0.01s 0.01s 0.01s 0.01s 0.01s 0.01s 0.01s 0.01s 0.01s 0.01s 0.01s 0.01s 0.01s 0.01s 0.01s 0.01s 0.01s 0.01s 0.01s 0.01s 0.01s 0.01s 0.01s 0.01s 0.01s 0.01s 0.01s 0.01s 0.01s 0.01s 0.01s 0.01s 0.01s 0.01s 0.01s 0.01s 0.01s 0.01s 0.01s 0.01s 0.01s 0.01s 0.01s 0.01s 0.01s 0.01s 0.01s 0.01s 0.01s 0.01s 0.01s 0.01s 0.01s 0.01s 0.01s 0.01s 0.01s 0.01s 0.01s 0.01s 0.01s 0.01s 0.01s 0.01s 0.01s 0.01s 0.01s 0.01s 0.01s 0.01s 0.01s 0.01s 0.01s 0.01s 0.01s 0.01s 0.01s 0.01s 0.01s 0.01s 0.01s 0.01s 0.01s 0.01s 0.01s 0.01s 0.01s 0.01s 0.01s 0.01s 0.01s 0.01s 0.01s 0.01s 0.01s 0.01s 0.01s 0.01s 0.01s 0.01s 0.01s 0.01s 0.01s 0.01s 0.01s 0.01s 0.01s 0.01s 0.01s 0.01s 0.01s 0.01s 0.01s 0.01s 0.01s 0.01s 0.01s 0.01s 0.01s 0.01s 0.01s 0.01s 0.01s 0.01s 0.01s 0.01s 0.01s 0.01s 0.01s 0.01s 0.01s 0.01s 0.01s 0.01s 0.01s 0.01s 0.01s 0.01s 0.01s 0.01s 0.01s 0.01s 0.01s 0.01s 0.01s 0.01s 0.01s 0.01s 0.01s 0.01s 0.01s 0.01s 0.01s 0.01s 0.01s 0.01s 0.01s 0.01s 0.01s 0.01s 0.01s 0.01s 0.01s 0.01s 0.01s 0.01s 0.01s 0.01s 0.01s 0.01s 0.01s 0.01s 0.01s 0.01s 0.01s 0.01s 0.01s 0.01s 0.01s 0.01s 0.01s 0.01s 0.01s 0.01s 0.01s 0.01s 0.01s 0.01s 0.01s 0.01s 0.01s 0.01s 0.01s 0.01s 0.01s 0.01s 0.01s 0.01s 0.01s 0.01s 0.01s 0.01s 0.01s 0.01s 0.01s 0.01s 0.01s 0.01s 0.01s 0.01s 0.01s 0.01s 0.01s 0.01s 0.01s 0.01s 0.01s 0.01s 0.01s 0.01s 0.01s 0.01s 0.01s 0.01s 0.01s 0.01s 0.01s 0.01s 0.01s 0.01s 0.01s 0.01s 0.01s 0.01s 0.01s 0.01s 0.01s 0.01s 0.01s 0.01s 0.01s 0.01s 0.01s 0.01s 0.01s 0.01s 0.01s 0.01s 0.01s 0.01s 0.01s 0.01s 0.01s 0.01s 0.01s 0.01s 0.01s 0.01s 0.01s 0.01s 0.01s 0.01s 0.01s 0.01s 0.01s 0.01s 0.01s 0.01s 0.01s 0.01s 0.01s 0.01s 0.01s 0.01s 0.01s 0.01s 0.01s 0.01s 0.01s 0.01s 0.01s 0.01s 0.01s 0.01s 0.01s 0.01s 0.01s 0.01s 0.01s 0.01s 0.01s 0.01s 0.01s 0.01s 0.01s 0.01s 0.01s 0.01s 0.01s 0.01s 0.01s 0.01s 0.01s 0.01s 0.01s 0.01s 0.01s 0.01s 0.01s 0.01s 0.01s 0.01s 0.01s 0.01s 0.01s 0.01s 0.01s 0.01s 0.01s 0.01s 0.01s 0.01s 0.01s 0.01s 0.01s 0.01s 0.01s 0.01s 0.01s 0.01s 0.01s 0.01s 0.01s 0.01s 0.01s 0.01s 0.01s 0.01s 0.01s 0.01s 0.01s 0.01s 0.01s 0.01s 0.01s 0.01s 0.01s 0.01s 0.01s 0.01s 0.01s 0.01s 0.01s 0.01s 0.01s 0.01s 0.01s 0.01s 0.01s 0.01s 0.01s 0.01s 0.01s 0.01s 0.01s 0.01s 0.01s 0.01s 0.01s 0.01s 0.01s 0.01s 0.01s 0.01s 0.01s 0.01s 0.01s 0.01s 0.01s 0.01s 0.01s 0.01s 0.01s 0.01s 0.01s 0.01s 0.01s 0.01s 0.01s 0.01s 0.01s 0.01s 0.01s 0.01s 0.01s 0.01s 0.01s 0.01s 0.01s 0.01s 0.01s 0.01s 0.01s 0.01s 0.01s 0.01s 0.01s 0.01s 0.01s 0.01s 0.01s 0.01s 0.01s 0.01s 0.01s 0.01s 0.01s 0.01s 0.01s 0.01s 0.01s 0.01s 0.01s 0.01s 0.01s 0.01s 0.01s 0.01s 0.01s 0.01s 0.01s 0.01s 0.01s 0.01s 0.01s 0.01s 0.01s 0.01s 0.01s 0.01s 0.01s 0.01s 0.01s 0.01s 0.01s 0.01s 0.01s 0.01s 0.01s 0.01s 0.01s 0.01s 0.01s 0.01s 0.01s 0.01s 0.01s 0.01s 0.01s 0.01s 0.01s 0.01s 0.01s 0.01s 0.01s 0.01s 0.01s 0.01s 0.01s 0.01s 0.01s 0.01s 0.01s 0.01s 0.01s 0.01s 0.01s 0.01s 0.01s 0.01s 0.01s 0.01s 0.01s 0.01s 0.01s 0.01s 0.01s 0.01s 0.01s 0.01s 0.01s 0.01s 0.01s 0.01s 0.01s 0.01s 0.01s 0.01s 0.01s 0.01s 0.01s 0.01s 0.01s 0.01s 0.01s 0.01s 0.01s 0.01s 0.01s 0.01s 0.01s 0.01s 0.01s 0.01s 0.01s 0.01s 0.01s 0.01s 0.01s 0.01s 0.01s 0.01s 0.01s 0.01s 0.01s 0.01s 0.01s 0.01s 0.01s 0.01s 0.01s 0.01s 0.01s 0.01s 0.01s 0.01s 0.01s 0.01s 0.01s 0.01s 0.01s 0.01s 0.01s 0.01s 0.01s 0.01s 0.01s 0.01s 0.01s 0.01s 0.01s 0.01s 0.01s 0.01s 0.01s 0.01s 0.01s 0.01s 0.01s 0.01s 0.01s 0.01s 0.01s 0.01s 0.01s 0.01s 0.01s 0.01s 0.01s 0.01s 0.01s 0.01s 0.01s 0.01s 0.01s 0.01s 0.01s 0.01s 0.01s 0.01s 0.01s 0.01s 0.01s 0.01s 0.01s 0.01s 0.01s 0.01s 0.01s 0.01s 0.01s 0.01s 0.01s 0.01s 0.01s 0.01s 0.01s 0.01s 0.01s 0.01s 0.01s 0.01s 0.01s 0.01s 0.01s 0.01s 0.01s 0.01s 0.01s 0.01s 0.01s 0.01s 0.01s 0.01s 0.01s 0.01s 0.01s 0.01s 0.01s 0.01s 0.01s 0.01s 0.01s 0.01s 0.01s 0.01s 0.01s 0.01s 0.01s 0.01s 0.01s 0.01s 0.01s 0.01s 0.01s 0.01s 0.01s 0.01s 0.01s 0.01s 0.01s 0.01s 0.01s 0.01s 0.01s 0.01s 0.01s 0.01s 0.01s 0.01s 0.01s 0.01s 0.01s 0.01s 0.01s 0.01s 0.01s 0.01s 0.01s 0.01s 0.01s 0.01s 0.01s 0.01s 0.01s 0.01s 0.01s 0.01s 0.01s 0.01s 0.01s 0.01s 0.01s 0.01s 0.01s 0.01s 0.01s 0.01s 0.01s 0.01s 0.01s 0.01s 0.01s 0.01s 0.01s 0.01s 0.01s 0.01s 0.01s 0.01s 0.01s 0.01s 0.01s 0.01s 0.01s 0.01s 0.01s 0.01s 0.01s 0.01s 0.01s 0.01s 0.01s 0.01s 0.01s 0.01s 0.01s 0.01s 0.01s 0.01s 0.01s 0.01s 0.01s 0.01s 0.01s 0.01s 0.01s 0.01s 0.01s 0.01s 0.01s 0.01s 0.01s 0.01s 0.01s 0.01s 0.01s 0.01s 0.01s 0.01s 0.01s 0.01s 0.01s 0.01s 0.01s 0.01s 0.01s 0.01s 0.01s 0.01s 0.01s 0.01s 0.01s 0.01s 0.01s 0.01s 0.01s 0.01s 0.01s 0.01s 0.01s 0.01s 0.01s 0.01s 0.01s 0.01s 0.01s 0.01s 0.01s 0.01s 0.01s 0.01s 0.01s 0.01s 0.01s 0.01s 0.01s 0.01s 0.01s 0.01s 0.01s 0.01s 0.01s 0.01s 0.01s 0.01s 0.01s 0.01s 0.01s 0.01s 0.01s 0.01s 0.01s 0.01s 0.01s 0.01s 0.01s 0.01s 0.01s 0.01s 0.01s 0.01s 0.01s 0.01s 0.01s 0.01s 0.01s 0.01s 0.01s 0.01s 0.01s 0.01s 0.01s 0.01s 0.01s 0.01s 0.01s 0.01s 0.01s 0.01s 0.01s 0.01s 0.01s 0.01s 0.01s 0.01s 0.01s 0.01s 0.01s 0.01s 0.01s 0.01s 0.01s 0.01s 0.01s 0.01s 0.01s 0.01s 0.01s 0.01s 0.01s 0.01s 0.01s 0.01s 0.01s 0.01s 0.01s 0.01s 0.01s 0.01s 0.01s 0.01s 0.01s 0.01s 0.01s 0.01s 0.01s 0.01s 0.01s 0.01s 0.01s 0.01s 0.01s 0.01s 0.01s 0.01s 0.01s 0.01s 0.01s 0.01s 0.01s 0.01s 0.01s 0.01s 0.01s 0.01s 0.01s 0.01s 0.01s 0.01s 0.01s 0.01s 0.01s 0.01s 0.01s 0.01s 0.01s 0.01s 0.01s 0.01s 0.01s 0.01s 0.01s 0.01s 0.01s 0.01s 0.01s 0.01s 0.01s 0.01s 0.01s 0.01s 0.01s 0.01s 0.01s 0.01s 0.01s 0.01s 0.01s 0.01s 0.01s 0.01s 0.01s 0.01s 0.01s 0.01s 0.01s 0.01s 0.01s 0.01s 0.01s 0.01s 0.01s 0.01s 0.01s 0.01s 0.01s 0.01s 0.01s 0.01s 0.01s 0.01s 0.01s 0.01s 0.01s 0.01s 0.01s 0.01s 0.01s 0.01s 0.01s 0.01s 0.01s 0.01s 0.01s 0.01s 0.01s 0.01s 0.01s 0.01s 0.01s 0.01s 0.01s 0.01s 0.01s 0.01s 0.01s 0.01s 0.01s 0.01s 0.01s 0.01s 0.01s 0.01s 0.01s 0.01s 0.01s 0.01s 0.01s 0.01s 0.01s 0.01s 0.01s 0.01s 0.01s 0.01s 0.01s 0.01s 0.01s 0.01s 0.01s 0.01s 0.01s 0.01s 0.01s 0.01s 0.01s 0.01s 0.01s 0.01s 0.01s 0.01s 0.01s 0.01s 0.01s 0.01s 0.01s 0.01s 0.01s 0.01s 0.01s 0.01s 0.01s 0.01s 0.01s 0.01s 0.01s 0.01s 0.01s 0.01s 0.01s 0.01s 0.01s 0.01s 0.01s 0.01s 0.01s 0.01s 0.01s 0.01s 0.